OPT_V9/start_from_1_gen/powerflow_results_t4.txt
Pandapower Network Debug Info
==================================================

BUS:
       vm_pu  va_degree      p_mw    q_mvar
0   0.993227   0.105344  0.000994  0.000965
1   0.988967   0.186530  0.001242  0.002286
2   0.985221   0.241571  0.002035  0.002621
3   0.989644   0.157326  0.002655  0.003406
4   0.987930   0.279601  0.003337  0.005904
5   0.991150   0.192745  0.003541  0.006966
6   0.989348   0.194895  0.001253  0.001019
7   0.997465   0.042797  0.001622  0.002310
8   0.997717   0.046035  0.001909  0.002622
9   0.999886   0.000995  0.010324  0.011691
10  0.999873   0.001064  0.011480  0.008328
11  0.999864   0.001179  0.009867  0.011802
12  0.999778   0.002152  0.010359  0.004832
13  0.999762   0.002431  0.009972  0.009887
14  0.999751   0.002564  0.010973  0.013300
15  0.999930   0.000679  0.000000  0.000000
16  0.999930   0.000684  0.000000  0.000000
17  0.999783   0.002216  0.000000  0.000000
18  0.999783   0.002227  0.000000  0.000000
19  1.000000   0.000000 -0.038729 -0.046188
20  1.000000   0.000006  0.000000  0.000000
21  1.000000   0.000000 -0.043147 -0.051965
22  1.000000   0.000007  0.000000  0.000000
--------------------------------------------------

LINE:
    p_from_mw  q_from_mvar   p_to_mw  q_to_mvar         pl_mw       ql_mvar  i_from_ka   i_to_ka      i_ka  vm_from_pu  va_from_degree  vm_to_pu  va_to_degree  loading_percent
0    0.038719     0.042188 -0.038716  -0.042185  3.207241e-06  2.500738e-06   0.002204  0.002204  0.002204    1.000000        0.000006  0.999930      0.000679         0.958268
1    0.043137     0.047965 -0.043126  -0.047956  1.119377e-05  8.727968e-06   0.002483  0.002483  0.002483    1.000000        0.000007  0.999783      0.002216         1.079551
2    0.031672     0.031823 -0.031671  -0.031821  1.559014e-06  1.215589e-06   0.001728  0.001728  0.001728    0.999930        0.000679  0.999886      0.000995         0.751409
3    0.010359     0.004832 -0.010359  -0.004832  4.520533e-08  3.524734e-08   0.000440  0.000440  0.000440    0.999783        0.002216  0.999778      0.002152         0.191332
4    0.020946     0.023187 -0.020945  -0.023186  5.340892e-07  4.164381e-07   0.001203  0.001203  0.001203    0.999783        0.002216  0.999762      0.002431         0.523017
5    0.007033     0.009363 -0.006969  -0.009313  6.414580e-05  5.001554e-05   0.016903  0.016903  0.016903    0.999930        0.000684  0.993227      0.105344         7.349240
6    0.004864     0.008040 -0.004796  -0.007986  6.853400e-05  5.343708e-05   0.013566  0.013566  0.013566    0.999783        0.002227  0.991150      0.192745         5.898272
7    0.001627     0.002314 -0.001622  -0.002310  5.408267e-06  4.216915e-06   0.004084  0.004084  0.004084    0.999783        0.002227  0.997465      0.042797         1.775552
8    0.005320     0.008584 -0.005302  -0.008570  1.754284e-05  1.367844e-05   0.014580  0.014580  0.014580    0.999783        0.002227  0.997717      0.046035         6.338933
9   -0.021347    -0.020131  0.021347   0.020131  2.978061e-07  2.322043e-07   0.001130  0.001130  0.001130    0.999873        0.001064  0.999886      0.000995         0.491089
10  -0.009867    -0.011802  0.009867   0.011803  1.157733e-07  9.027037e-08   0.000592  0.000592  0.000592    0.999864        0.001179  0.999873      0.001064         0.257478
11  -0.010973    -0.013300  0.010973   0.013300  1.454692e-07  1.134247e-07   0.000664  0.000664  0.000664    0.999751        0.002564  0.999762      0.002431         0.288617
12  -0.003287    -0.004915  0.003308   0.004932  2.114986e-05  1.649089e-05   0.008630  0.008630  0.008630    0.988967        0.186530  0.993227      0.105344         3.752166
13  -0.002655    -0.003406  0.002668   0.003416  1.271223e-05  9.911933e-06   0.006298  0.006298  0.006298    0.989644        0.157326  0.993227      0.105344         2.738273
14  -0.002035    -0.002621  0.002045   0.002629  1.026334e-05  8.002496e-06   0.004862  0.004862  0.004862    0.985221        0.241571  0.988967      0.186530         2.113825
15   0.003394     0.005949 -0.003337  -0.005904  5.733288e-05  4.470339e-05   0.009908  0.009908  0.009908    0.997717        0.046035  0.987930      0.279601         4.307765
16  -0.001253    -0.001019  0.001255   0.001021  2.319244e-06  1.808352e-06   0.002356  0.002356  0.002356    0.989348        0.194895  0.991150      0.192745         1.024259
--------------------------------------------------

TRAFO:
    p_hv_mw  q_hv_mvar   p_lv_mw  q_lv_mvar    pl_mw  ql_mvar   i_hv_ka   i_lv_ka  vm_hv_pu  va_hv_degree  vm_lv_pu  va_lv_degree  loading_percent
0  0.007043   0.010362 -0.007033  -0.009363  0.00001    0.001  0.000482  0.016903  0.999930      0.000679  0.999930      0.000684         0.125304
1  0.011821   0.019937 -0.011811  -0.018938  0.00001    0.001  0.000892  0.032222  0.999783      0.002216  0.999783      0.002227         0.231833
2  0.038729   0.046188 -0.038719  -0.042188  0.00001    0.004  0.000497  0.002204  1.000000      0.000000  1.000000      0.000006         0.150690
3  0.043147   0.051965 -0.043137  -0.047965  0.00001    0.004  0.000557  0.002483  1.000000      0.000000  1.000000      0.000007         0.168857
--------------------------------------------------
